Circuit: * D:\Temp\20231022_KT0913_Digital_Radio\LTSpice\Filter_002.asc


Date: Wed Dec 27 21:34:06 2023
Total elapsed time: 0.079 seconds.

tnom = 27
temp = 27
method = trap
totiter = 0
traniter = 0
tranpoints = 0
accept = 0
rejected = 0
matrix size = 5
fillins = 0
solver = Normal

