Circuit: * D:\Temp\20231022_KT0913_Digital_Radio\LTSpice\Filter_001.asc


Date: Fri Dec 15 12:07:59 2023
Total elapsed time: 0.031 seconds.

tnom = 27
temp = 27
method = trap
totiter = 0
traniter = 0
tranpoints = 0
accept = 0
rejected = 0
matrix size = 4
fillins = 0
solver = Normal

