Circuit: * D:\Temp\20231022_KT0913_Digital_Radio\LTSpice\Filter_004.asc


Date: Tue Jan 02 11:25:52 2024
Total elapsed time: 0.062 seconds.

tnom = 27
temp = 27
method = trap
totiter = 0
traniter = 0
tranpoints = 0
accept = 0
rejected = 0
matrix size = 4
fillins = 1
solver = Normal

