Circuit: * D:\Temp\20231022_KT0913_Digital_Radio\LTSpice\Filter_003.asc


Date: Sun Jan 14 17:40:14 2024
Total elapsed time: 0.078 seconds.

tnom = 27
temp = 27
method = trap
totiter = 0
traniter = 0
tranpoints = 0
accept = 0
rejected = 0
matrix size = 7
fillins = 0
solver = Normal

